<routes>

    <flow id="0" from="16to0" to="12to24" begin="0" end="1000000" probability="0.25" departSpeed="random" departPos="random" departLane="random"/>
    <flow id="1" from="17to1" to="13to25" begin="0" end="1000000" probability="0.25" departSpeed="random" departPos="random" departLane="random"/>
    <flow id="2" from="18to2" to="14to26" begin="0" end="1000000" probability="0.25" departSpeed="random" departPos="random" departLane="random"/>
    <flow id="3" from="19to3" to="15to27" begin="0" end="1000000" probability="0.25" departSpeed="random" departPos="random" departLane="random"/>

    <flow id="4" from="20to0" to="3to28" begin="0" end="1000000" probability="0.25" departSpeed="random" departPos="random" departLane="random"/>
    <flow id="5" from="21to4" to="7to29" begin="0" end="1000000" probability="0.25" departSpeed="random" departPos="random" departLane="random"/>
    <flow id="6" from="22to8" to="11to30" begin="0" end="1000000" probability="0.25" departSpeed="random" departPos="random" departLane="random"/>
    <flow id="7" from="23to12" to="15to31" begin="0" end="1000000" probability="0.25" departSpeed="random" departPos="random" departLane="random"/>
    
    <!-- 上到右 -->
    <flow id="8" from="16to0" to="3to28" begin="0" end="1000000" probability="0.02" departSpeed="random" departPos="random" departLane="random"/>
    <flow id="9" from="16to0" to="7to29" begin="0" end="1000000" probability="0.02" departSpeed="random" departPos="random" departLane="random"/>
    <flow id="10" from="16to0" to="11to30" begin="0" end="1000000" probability="0.02" departSpeed="random" departPos="random" departLane="random"/>
    <flow id="11" from="16to0" to="15to31" begin="0" end="1000000" probability="0.02" departSpeed="random" departPos="random" departLane="random"/>
    
    <flow id="12" from="17to1" to="3to28" begin="0" end="1000000" probability="0.02" departSpeed="random" departPos="random" departLane="random"/>
    <flow id="13" from="17to1" to="7to29" begin="0" end="1000000" probability="0.02" departSpeed="random" departPos="random" departLane="random"/>
    <flow id="14" from="17to1" to="11to30" begin="0" end="1000000" probability="0.02" departSpeed="random" departPos="random" departLane="random"/>
    <flow id="15" from="17to1" to="15to31" begin="0" end="1000000" probability="0.02" departSpeed="random" departPos="random" departLane="random"/>
    
    <flow id="16" from="18to2" to="3to28" begin="0" end="1000000" probability="0.02" departSpeed="random" departPos="random" departLane="random"/>
    <flow id="17" from="18to2" to="7to29" begin="0" end="1000000" probability="0.02" departSpeed="random" departPos="random" departLane="random"/>
    <flow id="18" from="18to2" to="11to30" begin="0" end="1000000" probability="0.02" departSpeed="random" departPos="random" departLane="random"/>
    <flow id="19" from="18to2" to="15to31" begin="0" end="1000000" probability="0.02" departSpeed="random" departPos="random" departLane="random"/>
    
    <flow id="20" from="19to3" to="3to28" begin="0" end="1000000" probability="0.02" departSpeed="random" departPos="random" departLane="random"/>
    <flow id="21" from="19to3" to="7to29" begin="0" end="1000000" probability="0.02" departSpeed="random" departPos="random" departLane="random"/>
    <flow id="22" from="19to3" to="11to30" begin="0" end="1000000" probability="0.02" departSpeed="random" departPos="random" departLane="random"/>
    <flow id="23" from="19to3" to="15to31" begin="0" end="1000000" probability="0.02" departSpeed="random" departPos="random" departLane="random"/>
    
    <!-- 左到下 -->
    <flow id="24" from="20to0" to="12to24" begin="0" end="1000000" probability="0.02" departSpeed="random" departPos="random" departLane="random"/>
    <flow id="25" from="20to0" to="13to25" begin="0" end="1000000" probability="0.02" departSpeed="random" departPos="random" departLane="random"/>
    <flow id="26" from="20to0" to="14to26" begin="0" end="1000000" probability="0.02" departSpeed="random" departPos="random" departLane="random"/>
    <flow id="27" from="20to0" to="15to27" begin="0" end="1000000" probability="0.02" departSpeed="random" departPos="random" departLane="random"/>

    <flow id="28" from="21to4" to="12to24" begin="0" end="1000000" probability="0.02" departSpeed="random" departPos="random" departLane="random"/>
    <flow id="29" from="21to4" to="13to25" begin="0" end="1000000" probability="0.02" departSpeed="random" departPos="random" departLane="random"/>
    <flow id="30" from="21to4" to="14to26" begin="0" end="1000000" probability="0.02" departSpeed="random" departPos="random" departLane="random"/>
    <flow id="31" from="21to4" to="15to27" begin="0" end="1000000" probability="0.02" departSpeed="random" departPos="random" departLane="random"/>

    <flow id="32" from="22to8" to="12to24" begin="0" end="1000000" probability="0.02" departSpeed="random" departPos="random" departLane="random"/>
    <flow id="33" from="22to8" to="13to25" begin="0" end="1000000" probability="0.02" departSpeed="random" departPos="random" departLane="random"/>
    <flow id="34" from="22to8" to="14to26" begin="0" end="1000000" probability="0.02" departSpeed="random" departPos="random" departLane="random"/>
    <flow id="35" from="22to8" to="15to27" begin="0" end="1000000" probability="0.02" departSpeed="random" departPos="random" departLane="random"/>

    <flow id="36" from="23to12" to="12to24" begin="0" end="1000000" probability="0.02" departSpeed="random" departPos="random" departLane="random"/>
    <flow id="37" from="23to12" to="13to25" begin="0" end="1000000" probability="0.02" departSpeed="random" departPos="random" departLane="random"/>
    <flow id="38" from="23to12" to="14to26" begin="0" end="1000000" probability="0.02" departSpeed="random" departPos="random" departLane="random"/>
    <flow id="39" from="23to12" to="15to27" begin="0" end="1000000" probability="0.02" departSpeed="random" departPos="random" departLane="random"/>

</routes>
